/*--------------------------------*- C++ -*----------------------------------*\
  =========                 |
  \\      /  F ield         | OpenFOAM: The Open Source CFD Toolbox
   \\    /   O peration     | Website:  https://openfoam.org
    \\  /    A nd           | Version:  9
     \\/     M anipulation  |
\*---------------------------------------------------------------------------*/
FoamFile
{
    version     2.0;
    format      ascii;
    class       dictionary;
    location    "system";
    object      blockMeshDict;
}

convertToMeters 1.0;

vertices
(
    (0 0 0)    // Vertex 0
    (8.2510 0 0)    // Vertex 1
    (8.2510 11.5241 0)    // Vertex 2
    (0 11.5241 0)    // Vertex 3
    (0 0 2.0632)    // Vertex 4
    (8.2510 0 2.0632)    // Vertex 5
    (8.2510 11.5241 2.0632)    // Vertex 6
    (0 11.5241 2.0632)    // Vertex 7
    (0 1 2.0632) // Vertex 8
    (1 1 2.0632) // Vertex 9  
    (1 0 2.0632) // Vertex 10
    (0 11.5241 0.8) // Vertex 11
    (0 10.5241 0.8) // Vertex 12
    (0 10.5241 0) // Vertex 13
    (8.251 1 2.0632) // Vertex 14
    (0 0 0.8) // Vertex 15
    (8.251 11.5241 0.8) // Vertex 16
    (8.251 10.5241 0.8) // Vertex 17
    (8.251 10.5241 0) // Vertex 18
    (1 0 0) // Vertex 19
    (1 1 0) // Vertex 20
    (0 1 0) // Vertex 21
);

blocks
(
    hex (0 1 2 3 4 5 6 7) (50 50 25) simpleGrading (1 1 1)
    hex (4 10 9 8 0 19 20 21) (25 25 50) simpleGrading (1 1 1)
    hex (3 13 12 11 2 18 17 16) (25 25 50) simpleGrading (1 1 1)
);

edges
(
);

boundary
(
    walls
    {
        type wall;
        faces
        (
            (0 1 2 3)   // Floor
            (4 5 6 7)   // Ceiling
            (3 0 4 7)   // Left wall
            (1 2 6 5)   // Right wall
            (0 1 5 4)   // Front wall
            (2 3 7 6)   // Back wall
        );
    }

    fan_inlet
    {
        type patch;
        faces
        (
            (4 8 9 10)   // Make sure this face isn't assigned elsewhere
        );
    }

    aircon_inlet
    {
        type patch;
        faces
        (
            (3 11 12 13)   // Ensure this face isn't overlapping with 'walls'
        );
    }
);



// ************************************************************************* //
