/*--------------------------------*- C++ -*----------------------------------*\
  =========                 |
  \\      /  F ield         | OpenFOAM: The Open Source CFD Toolbox
   \\    /   O peration     | Website:  https://openfoam.org
    \\  /    A nd           | Version:  9
     \\/     M anipulation  |
\*---------------------------------------------------------------------------*/
FoamFile
{
    format      ascii;
    class       volScalarField;
    location    "0";
    object      alphat;
}
// * * * * * * * * * * * * * * * * * * * * * * * * * * * * * * * * * * * * * //

dimensions      [1 -1 -1 0 0 0 0];

internalField   uniform 0;

boundaryField
{
    walls
    {
        type            compressible::alphatWallFunction;  // Wall function for heat transfer
        value           uniform 0;
    }

    fan_inlet
    {
        type            fixedValue;
        value           uniform 0;    // Adjust based on the fan's turbulence
    }

    aircon_inlet
    {
        type            fixedValue;
        value           uniform 0;    // Adjust based on aircon's turbulence
    }
}


// ************************************************************************* //
