/*--------------------------------*- C++ -*----------------------------------*\
  =========                 |
  \\      /  F ield         | OpenFOAM: The Open Source CFD Toolbox
   \\    /   O peration     | Website:  https://openfoam.org
    \\  /    A nd           | Version:  9
     \\/     M anipulation  |
\*---------------------------------------------------------------------------*/
FoamFile
{
    format      ascii;
    class       volScalarField;
    location    "0";
    object      epsilon;
}
// * * * * * * * * * * * * * * * * * * * * * * * * * * * * * * * * * * * * * //

dimensions      [0 2 -3 0 0 0 0];

internalField   uniform 0.01;

boundaryField
{
    walls
    {
        type            epsilonWallFunction;
        value           uniform 0.1;
    }

    fan_inlet
    {
        type            fixedValue;
        value           uniform 0.1;
    }

    aircon_inlet
    {
        type            fixedValue;
        value           uniform 0.05;
    }
}


// ************************************************************************* //
