/*--------------------------------*- C++ -*----------------------------------*\
  =========                 |
  \\      /  F ield         | OpenFOAM: The Open Source CFD Toolbox
   \\    /   O peration     | Website:  https://openfoam.org
    \\  /    A nd           | Version:  9
     \\/     M anipulation  |
\*---------------------------------------------------------------------------*/
FoamFile
{
    format      ascii;
    class       volScalarField;
    object      p_rgh;
}
// * * * * * * * * * * * * * * * * * * * * * * * * * * * * * * * * * * * * * //

dimensions      [1 -1 -2 0 0 0 0];

internalField   uniform 0;

boundaryField
{
    walls
    {
        type            fixedFluxPressure;   // Wall pressure condition
        rho             rho;                 // Use the local density
        value           uniform 0;
    }

    fan_inlet
    {
        type            fixedFluxPressure;   // Adjust for fan-driven pressure
        rho             rho;
        value           uniform 0;
    }

    aircon_inlet
    {
        type            fixedFluxPressure;   // Adjust for aircon-driven pressure
        rho             rho;
        value           uniform 0;
    }
}

// ************************************************************************* //
